Version 4
SHEET 1 3476 680
WIRE -112 -32 -288 -32
WIRE 16 -32 -112 -32
WIRE 272 -32 112 -32
WIRE 336 -32 272 -32
WIRE 480 -32 416 -32
WIRE 624 -32 480 -32
WIRE -112 16 -112 -32
WIRE -288 48 -288 -32
WIRE 272 80 272 -32
WIRE 784 128 720 128
WIRE 912 128 864 128
WIRE -112 144 -112 96
WIRE 64 144 64 32
WIRE 64 144 -112 144
WIRE 224 144 64 144
WIRE 400 144 320 144
WIRE 480 144 480 -32
WIRE 480 144 400 144
WIRE 912 176 912 128
WIRE -288 192 -288 128
WIRE 400 208 400 144
WIRE 624 208 624 -32
WIRE 64 240 64 144
WIRE 256 288 128 288
WIRE 912 304 912 256
WIRE 256 352 256 288
WIRE 400 352 400 288
WIRE 400 352 256 352
WIRE -288 384 -288 272
WIRE 400 384 400 352
WIRE 64 416 64 336
WIRE 720 448 720 128
WIRE 832 448 720 448
WIRE 912 448 912 368
WIRE 912 448 832 448
WIRE 400 512 400 464
WIRE 624 512 624 288
WIRE 624 512 400 512
WIRE 64 544 64 480
WIRE 400 544 400 512
FLAG -288 384 0
FLAG 400 544 0
FLAG 64 544 0
FLAG 832 448 0
SYMBOL npn 224 80 M90
SYMATTR InstName Q1
SYMATTR Value BC109B
SYMBOL npn 128 240 M0
SYMATTR InstName Q2
SYMATTR Value BC109B
SYMBOL npn 16 32 R270
SYMATTR InstName Q3
SYMATTR Value 2N3904
SYMBOL res -128 0 R0
SYMATTR InstName R1
SYMATTR Value 100
SYMBOL res 432 -48 R90
WINDOW 0 0 56 VBottom 2
WINDOW 3 32 56 VTop 2
SYMATTR InstName R2
SYMATTR Value 5.5
SYMBOL res 416 304 R180
WINDOW 0 36 76 Left 2
WINDOW 3 36 40 Left 2
SYMATTR InstName R3
SYMATTR Value 500k
SYMBOL res 416 480 R180
WINDOW 0 36 76 Left 2
WINDOW 3 36 40 Left 2
SYMATTR InstName R4
SYMATTR Value 400k
SYMBOL res 608 192 R0
SYMATTR InstName R5
SYMATTR Value 800
SYMBOL voltage -288 176 R0
WINDOW 123 0 0 Left 0
WINDOW 39 0 0 Left 0
SYMATTR InstName V1
SYMATTR Value 14
SYMBOL voltage -288 32 R0
WINDOW 123 0 0 Left 0
WINDOW 39 0 0 Left 0
SYMATTR InstName V2
SYMATTR Value SINE(0 2)
SYMBOL zener 80 480 R180
WINDOW 0 24 64 Left 2
WINDOW 3 24 0 Left 2
SYMATTR InstName D1
SYMATTR Value 1N746
SYMATTR Description Diode
SYMATTR Type diode
SYMBOL zener 928 368 R180
WINDOW 0 24 64 Left 2
WINDOW 3 24 0 Left 2
SYMATTR InstName D2
SYMATTR Value 1N746
SYMATTR Description Diode
SYMATTR Type diode
SYMBOL voltage 880 128 R90
WINDOW 123 0 0 Left 0
WINDOW 39 0 0 Left 0
SYMATTR InstName V3
SYMATTR Value 14
SYMBOL res 896 160 R0
SYMATTR InstName R6
SYMATTR Value 200
TEXT -320 576 Left 2 !.tran 1
