Version 4
SHEET 1 1444 680
WIRE 848 -64 848 -96
WIRE 800 -48 736 -48
WIRE 800 0 784 0
WIRE 240 16 240 -16
WIRE 1328 16 1328 -16
WIRE 784 32 784 0
WIRE 432 112 432 80
WIRE 16 128 0 128
WIRE 112 128 16 128
WIRE 240 128 240 96
WIRE 240 128 176 128
WIRE 400 128 240 128
WIRE 736 128 736 -48
WIRE 736 128 688 128
WIRE 560 144 464 144
WIRE 624 144 560 144
WIRE 848 144 848 16
WIRE 896 144 848 144
WIRE 1072 144 976 144
WIRE 1168 144 1072 144
WIRE 1328 144 1328 96
WIRE 1328 144 1248 144
WIRE 1424 144 1328 144
WIRE 240 160 240 128
WIRE 400 160 352 160
WIRE 736 160 688 160
WIRE 0 176 0 128
WIRE 624 176 576 176
WIRE 1424 176 1424 144
WIRE 1328 192 1328 144
WIRE 352 208 352 160
WIRE 432 208 432 176
WIRE 1072 208 1072 144
WIRE 352 256 352 208
WIRE 240 272 240 240
WIRE 576 272 576 176
WIRE 0 288 0 256
WIRE 848 288 848 144
WIRE 736 304 736 160
WIRE 800 304 736 304
WIRE 1328 304 1328 272
WIRE 1072 320 1072 272
WIRE 800 352 784 352
WIRE 352 368 352 336
WIRE 784 384 784 352
WIRE 848 400 848 368
FLAG 0 288 0
FLAG 1072 320 0
FLAG 1424 176 0
FLAG 1328 -16 V+
FLAG 848 -96 V+
FLAG 432 80 V+
FLAG 240 -16 V+
FLAG 1328 304 V-
FLAG 848 400 V-
FLAG 784 384 V-
FLAG 784 32 V-
FLAG 576 272 V-
FLAG 432 208 V-
FLAG 352 368 V-
FLAG 240 272 V-
FLAG 16 128 IN
FLAG 352 208 TRIANGLE
FLAG 560 144 PWM
FLAG 1072 144 OUT
SYMBOL voltage 0 160 R0
WINDOW 123 0 0 Left 0
WINDOW 39 0 0 Left 0
SYMATTR InstName V1
SYMATTR Value SINE(0.5 3 1k)
SYMBOL cap 176 112 R90
WINDOW 0 0 32 VBottom 2
WINDOW 3 32 32 VTop 2
SYMATTR InstName C1
SYMATTR Value 1µF
SYMBOL res 224 0 R0
SYMATTR InstName R1
SYMATTR Value 10k
SYMBOL res 224 144 R0
SYMATTR InstName R2
SYMATTR Value 10k
SYMBOL Comparators\\LT1721 432 80 R0
SYMATTR InstName U1
SYMBOL voltage 352 240 R0
WINDOW 123 0 0 Left 0
WINDOW 39 0 0 Left 0
SYMATTR InstName V2
SYMATTR Value PULSE(0 10 0 10u 10u 1n 20u)
SYMBOL Digital\\buf 624 80 R0
WINDOW 3 -3 134 Left 2
SYMATTR InstName A1
SYMATTR Value vt=5 vhigh=10 vlow=0
SYMBOL sw 848 32 M180
SYMATTR InstName S1
SYMBOL sw 848 384 M180
SYMATTR InstName S2
SYMBOL ind 880 160 R270
WINDOW 0 32 56 VTop 2
WINDOW 3 5 56 VBottom 2
SYMATTR InstName L1
SYMATTR Value 220µH
SYMBOL cap 1056 208 R0
SYMATTR InstName C2
SYMATTR Value 1µF
SYMBOL res 1264 128 R90
WINDOW 0 0 56 VBottom 2
WINDOW 3 32 56 VTop 2
SYMATTR InstName R3
SYMATTR Value 100
SYMBOL voltage 1328 176 R0
WINDOW 123 0 0 Left 0
WINDOW 39 0 0 Left 0
SYMATTR InstName V3
SYMATTR Value 5
SYMBOL voltage 1328 0 R0
WINDOW 123 0 0 Left 0
WINDOW 39 0 0 Left 0
SYMATTR InstName V4
SYMATTR Value 5
TEXT -24 440 Left 2 !.model sw sw (Ron=0.1 Roff=1Meg Vt=5)
TEXT -24 480 Left 2 !.tran 0 9m 8m
