Version 4
SHEET 1 1264 680
WIRE 192 -128 -256 -128
WIRE 448 -128 192 -128
WIRE 736 -128 448 -128
WIRE 1040 -128 736 -128
WIRE 192 -80 192 -128
WIRE 448 -80 448 -128
WIRE 1040 -80 1040 -128
WIRE 736 16 736 -128
WIRE -256 64 -256 -128
WIRE 192 64 192 0
WIRE 240 64 192 64
WIRE 352 64 320 64
WIRE 448 64 448 0
WIRE 528 64 448 64
WIRE 672 64 608 64
WIRE 1040 64 1040 0
WIRE 1040 112 1040 64
WIRE 192 128 192 64
WIRE 448 128 448 64
WIRE 736 160 736 112
WIRE 816 160 736 160
WIRE 976 160 896 160
WIRE -64 176 -112 176
WIRE 0 176 -64 176
WIRE 128 176 80 176
WIRE 352 176 352 64
WIRE 384 176 352 176
WIRE -112 240 -112 176
WIRE 192 256 192 224
WIRE 448 256 448 224
WIRE 448 256 192 256
WIRE 192 288 192 256
WIRE 352 288 352 176
WIRE 736 288 736 160
WIRE -256 400 -256 144
WIRE -112 400 -112 320
WIRE -112 400 -256 400
WIRE 192 400 192 368
WIRE 192 400 -112 400
WIRE 352 400 352 368
WIRE 352 400 192 400
WIRE 736 400 736 368
WIRE 896 400 736 400
WIRE 1040 400 1040 208
WIRE 1040 400 896 400
WIRE 192 432 192 400
WIRE 896 432 896 400
FLAG 192 432 0
FLAG 896 432 0
FLAG 448 64 V1
FLAG 1040 64 V2
FLAG -64 176 Vin
SYMBOL res 96 160 R90
WINDOW 0 0 56 VBottom 2
WINDOW 3 32 56 VTop 2
SYMATTR InstName R1
SYMATTR Value 10k
SYMBOL npn 128 128 R0
SYMATTR InstName Q1
SYMATTR Value 2N3904
SYMBOL res 336 48 R90
WINDOW 0 0 56 VBottom 2
WINDOW 3 32 56 VTop 2
SYMATTR InstName R2
SYMATTR Value 1k
SYMBOL npn 384 128 R0
SYMATTR InstName Q2
SYMATTR Value 2N3904
SYMBOL res 176 -96 R0
SYMATTR InstName R3
SYMATTR Value 2.2k
SYMBOL res 176 272 R0
SYMATTR InstName R4
SYMATTR Value 3.3k
SYMBOL res 336 272 R0
SYMATTR InstName R5
SYMATTR Value 3.3k
SYMBOL res 432 -96 R0
SYMATTR InstName R6
SYMATTR Value 2.2k
SYMBOL voltage -112 224 R0
WINDOW 123 0 0 Left 0
WINDOW 39 0 0 Left 0
SYMATTR InstName V1
SYMATTR Value SINE(0 3 100)
SYMBOL voltage -256 48 R0
WINDOW 123 0 0 Left 0
WINDOW 39 0 0 Left 0
SYMATTR InstName V2
SYMATTR Value 5
SYMBOL pnp 672 112 M180
SYMATTR InstName Q4
SYMATTR Value 2N3906
SYMBOL res 624 48 R90
WINDOW 0 0 56 VBottom 2
WINDOW 3 32 56 VTop 2
SYMATTR InstName R7
SYMATTR Value 15k
SYMBOL res 912 144 R90
WINDOW 0 0 56 VBottom 2
WINDOW 3 32 56 VTop 2
SYMATTR InstName R8
SYMATTR Value 15k
SYMBOL npn 976 112 R0
SYMATTR InstName Q5
SYMATTR Value 2N3904
SYMBOL res 1024 -96 R0
SYMATTR InstName R9
SYMATTR Value 1k
SYMBOL res 720 272 R0
SYMATTR InstName R10
SYMATTR Value 1k
TEXT -290 456 Left 2 !.tran 50m
