Version 4
SHEET 1 888 680
WIRE 256 176 192 176
WIRE 352 176 336 176
WIRE 464 176 416 176
WIRE 560 176 464 176
WIRE 192 224 192 176
WIRE 464 224 464 176
WIRE 560 224 560 176
WIRE 192 352 192 304
WIRE 464 352 464 288
WIRE 464 352 192 352
WIRE 560 352 560 304
WIRE 560 352 464 352
WIRE 464 384 464 352
FLAG 464 384 0
SYMBOL cap 352 192 R270
WINDOW 0 32 32 VTop 2
WINDOW 3 0 32 VBottom 2
SYMATTR InstName C1
SYMATTR Value 10n
SYMBOL res 240 192 R270
WINDOW 0 32 56 VTop 2
WINDOW 3 0 56 VBottom 2
SYMATTR InstName R1
SYMATTR Value 10k
SYMBOL cap 448 224 R0
SYMATTR InstName C2
SYMATTR Value 10n
SYMBOL res 544 208 R0
SYMATTR InstName R2
SYMATTR Value 10k
SYMBOL voltage 192 208 R0
WINDOW 123 27 100 Left 2
WINDOW 39 0 0 Left 0
SYMATTR Value2 AC 1
SYMATTR InstName V1
SYMATTR Value ""
TEXT 160 408 Left 2 !.ac dec 1000 10m 100meg
